THERMO
   300.000  1000.000  5000.000
NC10H22                 C  10H  220    0   0G   300.000  5000.000  1000.00     1
 0.22576211E+02 0.61461103E-01-0.23262162E-04 0.40211304E-08-0.26098460E-12    2
-0.41874508E+05-0.85926533E+02-0.36326315E+01 0.13797385E+00-0.12604125E-03    3
 0.84876452E-07-0.28641116E-10-0.34200144E+05 0.50137796E+02                   4
IC8H18                  C   8H  180   00   0G   298.150  5000.000  1000.00     1
 0.19396317E+02 0.48813742E-01-0.15579804E-04 0.21783064E-08-0.10839138E-12    2
-0.37133922E+05-0.78853134E+02 0.42935711E+00 0.76576948E-01 0.84130588E-05    3
-0.58660319E-07 0.27941371E-10-0.30446438E+05 0.25673538E+02                   4
CO                121286C   1O   1          G  0300.00   5000.00  1000.00      1
 0.03025078E+02 0.14426885E-02-0.05630827E-05 0.10185813E-09-0.06910951E-13    2
-0.14268350E+05 0.06108217E+02 0.03262451E+02 0.15119409E-02-0.03881755E-04    3
 0.05581944E-07-0.02474951E-10-0.14310539E+05 0.04848897E+02                   4
CO2               121286C   1O   2          G  0300.00   5000.00  1000.00      1
 0.04453623E+02 0.03140168E-01-0.12784105E-05 0.02393996E-08-0.16690333E-13    2
-0.04896696E+06-0.09553959E+01 0.02275724E+02 0.09922072E-01-0.10409113E-04    3
 0.06866686E-07-0.02117280E-10-0.04837314E+06 0.10188488E+02                   4
O2                121386O   2               G  0300.00   5000.00  1000.00      1
 0.03697578E+02 0.06135197E-02-0.12588420E-06 0.01775281E-09-0.11364354E-14    2
-0.12339301E+04 0.03189165E+02 0.03212936E+02 0.11274864E-02-0.05756150E-05    3
 0.13138773E-08-0.08768554E-11-0.10052490E+04 0.06034737E+02                   4
O                 120186O   1               G  0300.00   5000.00  1000.00      1
 0.02542059E+02-0.02755061E-03-0.03102803E-07 0.04551067E-10-0.04368051E-14    2
 0.02923080E+06 0.04920308E+02 0.02946428E+02-0.16381665E-02 0.02421031E-04    3
-0.16028431E-08 0.03890696E-11 0.02914764E+06 0.02963995E+02                   4
N2                121286N   2               G  0300.00   5000.00  1000.00      1
 0.02926640E+02 0.14879768E-02-0.05684760E-05 0.10097038E-09-0.06753351E-13    2
-0.09227977E+04 0.05980528E+02 0.03298677E+02 0.14082404E-02-0.03963222E-04    3
 0.05641515E-07-0.02444854E-10-0.10208999E+04 0.03950372E+02                   4
H2                121286H   2               G  0300.00   5000.00  1000.00      1
 0.02991423E+02 0.07000644E-02-0.05633828E-06-0.09231578E-10 0.15827519E-14    2
-0.08350340E+04-0.13551101E+01 0.03298124E+02 0.08249441E-02-0.08143015E-05    3
-0.09475434E-09 0.04134872E-11-0.10125209E+04-0.03294094E+02                   4
H                 120186H   1               G  0300.00   5000.00  1000.00      1
 0.02500000E+02 0.00000000E+00 0.00000000E+00 0.00000000E+00 0.00000000E+00    2
 0.02547162E+06-0.04601176E+01 0.02500000E+02 0.00000000E+00 0.00000000E+00    3
 0.00000000E+00 0.00000000E+00 0.02547162E+06-0.04601176E+01                   4
H2O                20387H   2O   1          G  0300.00   5000.00  1000.00      1
 0.02672145E+02 0.03056293E-01-0.08730260E-05 0.12009964E-09-0.06391618E-13    2
-0.02989921E+06 0.06862817E+02 0.03386842E+02 0.03474982E-01-0.06354696E-04    3
 0.06968581E-07-0.02506588E-10-0.03020811E+06 0.02590232E+02                   4
OH                121286O   1H   1          G  0300.00   5000.00  1000.00      1
 0.02882730E+02 0.10139743E-02-0.02276877E-05 0.02174683E-09-0.05126305E-14    2
 0.03886888E+05 0.05595712E+02 0.03637266E+02 0.01850910E-02-0.16761646E-05    3
 0.02387202E-07-0.08431442E-11 0.03606781E+05 0.13588605E+01                   4
CYC9H18                 C   9H  180   00   0G   298.150  5000.000  1000.00     1
 0.21869270E+02 0.50424430E-01-0.17904790E-04 0.29462200E-08-0.18553340E-12    2
-0.34761230E+05-0.96088390E+02-0.75116530E+01 0.11548260E+00-0.61916680E-04    3
 0.91889780E-08 0.18684430E-11-0.25210230E+05 0.61221260E+02                   4
C3H6                    C   3H   6          G    300.00   4000.00 1000.00      1
 .673231663E+01 .149083400E-01-.494989900E-05 .721202210E-09-.376620390E-13    2
-.923623057E+03-.133137684E+02 .149330700E+01 .209251700E-01 .448679380E-05    3
-.166891190E-07 .715814600E-11 .107482600E+04 .161453400E+02                   4
CH3                     C   1H   3          G    300.00   4000.00 1000.00      1
 .284405718E+01 .613797410E-02-.223034500E-05 .378516110E-09-.245215900E-13    2
 .164378004E+05 .545265727E+01 .243044200E+01 .111241000E-01-.168022000E-04    3
 .162182910E-07-.586495220E-11 .164237800E+05 .678979400E+01                   4
C2H4                    C   2H   4          G    300.00   4000.00 1000.00      1
 .352841648E+01 .114851800E-01-.441838480E-05 .784460000E-09-.526684780E-13    2
 .442829030E+04 .223039249E+01-.861487900E+00 .279616190E-01-.338867690E-04    3
 .278515200E-07-.973787890E-11 .557304700E+04 .242114800E+02                   4
C2H3                    C   2H   3          G    300.00   4000.00 1000.00      1
 .593346697E+01 .401774510E-02-.396673900E-06-.144126700E-09 .237864300E-13    2
 .318543468E+05-.853030497E+01 .245927600E+01 .737147590E-02 .210987200E-05    3
-.132164200E-08-.118478400E-11 .333522500E+05 .115562000E+02                   4
CH2O                    C   1H   2O   1     G    300.00   4000.00 1000.00      1
 .299560858E+01 .668132120E-02-.262895400E-05 .473715290E-09-.321251710E-13    2
-.153203666E+05 .691256052E+01 .165273100E+01 .126314400E-01-.188816790E-04    3
 .205003110E-07-.841323710E-11-.148654000E+05 .137848200E+02                   4
HCO                     C   1H   1O   1     G    300.00   4000.00 1000.00      1
 .355727119E+01 .334557190E-02-.133500600E-05 .247057210E-09-.171385000E-13    2
 .391632208E+04 .555229973E+01 .289832900E+01 .619914620E-02-.962308420E-05    3
 .108982500E-07-.457488520E-11 .415992100E+04 .898361500E+01                   4
HO2                     H   1O   2          G    300.00   4000.00 1000.00      1
 .401721090E+01 .223982013E-02-.633658150E-06 .114246370E-09-.107908535E-13    2
 .111856713E+03 .378510215E+01 .430179801E+01-.474912051E-02 .211582891E-04    3
-.242763894E-07 .929225124E-11 .294808040E+03 .371666245E+01                   4
END
